/*--------------------------------*- C++ -*----------------------------------*\
  =========                 |
  \\      /  F ield         | OpenFOAM: The Open Source CFD Toolbox
   \\    /   O peration     | Website:  https://openfoam.org
    \\  /    A nd           | Version:  10
     \\/     M anipulation  |
\*---------------------------------------------------------------------------*/
FoamFile
{
    format      ascii;
    class       dictionary;
    object      controlDict;
}
// * * * * * * * * * * * * * * * * * * * * * * * * * * * * * * * * * * * * * //

application     rhoPimpleFoam;

startFrom       latestTime;

startTime       0;

stopAt          endTime;

endTime         0.15;

deltaT           1e-5;

writeControl    adjustableRunTime;

writeInterval   0.001;

purgeWrite      0;

writeFormat     ascii;

writePrecision   8;

writeCompression off;

timeFormat      general;

timePrecision   6;

runTimeModifiable true;

functions
{
    #includeFunc MachNo;
    #includeFunc residuals;
    forceCoeffs
{
    // Mandatory entries
    type            forceCoeffs;
    libs            ("libforces.so");
   patches         (aerofoil);


    // Optional entries

    // Field names
    p               p;
    U               U;
    rho             rho;
    rhoInf  1.204;
    // Reference pressure [Pa]
    pRef            1e5;

    // Include porosity effects?
    porosity        no;

    // Store and write volume field representations of forces and moments
    writeFields     yes;

    // Centre of rotation for moment calculations
    CofR            (0 0 0);

    // Lift direction
   liftDir         (-0.174 0 0.985);

    // Drag direction
   dragDir         (0.985 0 0.174);

    // Pitch axis
    pitchAxis       (0 1 0);

    // Freestream velocity magnitude [m/s]
    magUInf         242;

    // Reference length [m]
    lRef               1;

    // Reference area [m2]
    Aref            0.1;

}


};
// ************************************************************************* //
